*Heading
 Calcul GBS et Tour
** Job name: Job-GBS-Tower Model name: Model-1
** Generated by: Abaqus/CAE Learning Edition 2025
*Preprint, echo=NO, model=NO, history=NO, contact=NO
**
** PARTS
**
*Part, name=GBS_Fused
*Node
      1,          9.5,   1.70000005,           0.
      2,          10.,   1.70000005,           0.
      3,         15.5,   1.70000005,           0.
      4,         15.5,           0.,           0.
      5,           3.,   27.0400009,           0.
      6,          3.5,   27.0400009,           0.
      7,           3.,   45.0400009,           0.
      8,          3.5,   45.0400009,           0.
      9,   8.22724152,   1.70000005,        -4.75
     10,         4.75,   1.70000005,  -8.22724152
     11,           0.,   1.70000005,         -9.5
     12,        -4.75,   1.70000005,  -8.22724152
     13,  -8.22724152,   1.70000005,        -4.75
     14,         -9.5,   1.70000005,           0.
     15,  -8.22724152,   1.70000005,         4.75
     16,        -4.75,   1.70000005,   8.22724152
     17,           0.,   1.70000005,          9.5
     18,         4.75,   1.70000005,   8.22724152
     19,   8.22724152,   1.70000005,         4.75
     20,    8.8545599,   1.70000005,   4.64723158
** ... 290 like lines cut
*Element, type=C3D4
  1, 129,  34,  51,  33
  2, 128,  19, 129,  20
  3, 128,  20, 129,  33
  4, 129,  51,  34,  52
  5,  42, 124, 300,  59
  6,  59, 124, 300, 123
  7, 125,  60,  42,  43
  8, 125,  60, 124,  42
  9, 125, 126,  27,  13
 10, 125,  60,  43,  61
 11,  14, 114, 115, 136
 12, 141, 112,  12, 137
 13, 133,  30,   9,  31
 14, 132, 131,  47,  65
 15, 132,  65,  47,  48
 16, 133,  66, 132,  48
 17, 141, 112, 143, 138
 18, 141, 127,  29, 131
 19, 132, 138,  30, 131
 20, 142, 139, 117, 143
** ... 914 like lines cut
*Nset, nset=Set_Material_WholePart, generate
   1,  310,    1
*Elset, elset=Set_Material_WholePart, generate
   1,  934,    1
*Elset, elset=_GBS_Outer_Surface_S1, internal
  60,  64,  69,  95, 124, 128, 148, 204, 262, 263, 272, 287, 306, 326, 338, 347
 353, 358, 360, 361, 390, 405, 418, 424, 428, 437, 445, 454, 455, 490, 493, 499
 509, 526, 530, 542, 552, 556, 563, 576, 584, 593, 628, 634, 640, 643, 662, 663
 665, 685, 746, 775, 776, 777, 778, 786, 787, 790, 791, 792, 793, 794, 801, 808
 821, 838, 849, 867, 908, 912, 916
*Elset, elset=_GBS_Outer_Surface_S3, internal
   1,   4,   7,  10,  15,  31,  54,  55,  56,  57,  67,  68,  73,  76,  84,  94
 106, 117, 131, 157, 162, 170, 199, 257, 274, 283, 297, 305, 354, 363, 373, 375
 382, 398, 400, 410, 452, 481, 512, 538, 561, 573, 589, 605, 606, 635, 654, 688
 694, 703, 704, 712, 717, 730, 732, 734, 767, 772, 799, 805, 831, 834, 836, 839
 875, 877, 883, 888, 889, 890, 891, 902, 920, 927
*Elset, elset=_GBS_Outer_Surface_S2, internal
  65,  97,  98, 109, 255, 269, 271, 278, 310, 322, 329, 331, 336, 337, 345, 362
 367, 379, 421, 460, 465, 471, 474, 506, 511, 512, 557, 569, 577, 592, 608, 620
 647, 648, 659, 661, 666, 668, 681, 707, 709, 713, 715, 727, 729, 735, 743, 750
 769, 771, 780, 807, 841, 842, 845, 846, 853, 854, 860, 904, 913, 915, 928, 933
*Elset, elset=_GBS_Outer_Surface_S4, internal
  61,  70,  78, 254, 258, 259, 267, 282, 285, 291, 309, 346, 365, 402, 420, 442
 464, 469, 473, 516, 525, 535, 559, 564, 586, 617, 627, 630, 638, 650, 653, 667
 673, 714, 716, 721, 723, 725, 728, 736, 738, 742, 747, 751, 752, 754, 757, 759
 760, 761, 782, 810, 817, 830, 832, 855, 886, 893, 895, 897, 901, 905, 922
*Surface, type=ELEMENT, name=GBS_Outer_Surface
_GBS_Outer_Surface_S1, S1
_GBS_Outer_Surface_S3, S3
_GBS_Outer_Surface_S2, S2
_GBS_Outer_Surface_S4, S4
** Section: Section_Concrete_C50
*Solid Section, elset=Set_Material_WholePart, material=Concrete_C50
,
*End Part
**  
*Part, name=Tower
*Node
      1,         0.25,          50.,  0.433012694
      2,        -0.25,          50.,  0.433012694
      3,         -0.5,          50.,           0.
      4,        -0.25,          50., -0.433012694
      5,         0.25,          50., -0.433012694
      6,          0.5,          50.,           0.
      7,  0.707106769,          50.,  0.707106769
      8,           0.,          50.,           1.
      9, -0.707106769,          50.,  0.707106769
     10,          -1.,          50.,           0.
     11, -0.707106769,          50., -0.707106769
     12,           0.,          50.,          -1.
     13,  0.707106769,          50., -0.707106769
     14,           1.,          50.,           0.
     15, -0.0225822777,          50.,  0.680258811
     16, -0.344643146,          50.,  0.501856089
     17, -0.0231750049,          50., -0.681224644
     18, -0.345253438,          50., -0.502438128
     19, -0.566651881,          50., -5.97826293e-05
     20,        0.375,        43.75,  0.649519026
** ... 582 like lines cut
*Element, type=C3D20R
 1,  14,   6,   5,  13,  33,  25,  24,  32, 175, 174, 173, 172, 176, 177, 178,
    179, 181, 180, 182, 183
 2,  17,  12,  13,   5,  36,  31,  32,  24, 186, 185, 173, 184, 187, 188, 178,
    189, 191, 190, 183, 182
 3,  18,  17,   5,   4,  37,  36,  24,  23, 194, 184, 193, 192, 195, 189, 196,
    197, 198, 191, 182, 199
 4,  11,  12,  17,  18,  30,  31,  36,  37, 201, 186, 194, 200, 202, 187, 195,
    203, 204, 190, 191, 198
 5,  16,   9,  10,  19,  35,  28,  29,  38, 208, 207, 206, 205, 209, 210, 211,
    212, 214, 213, 215, 216
 6,   2,  16,  19,   3,  21,  35,  38,  22, 219, 205, 218, 217, 220, 212, 221,
    222, 223, 214, 216, 224
 7,   1,  15,  16,   2,  20,  34,  35,  21, 227, 226, 219, 225, 228, 229, 220,
    230, 232, 231, 214, 223
 8,  15,   1,   7,   8,  34,  20,  26,  27, 227, 235, 234, 233, 228, 236, 237,
    238, 231, 232, 239, 240
 9,   9,  16,  15,   8,  28,  35,  34,  27, 208, 226, 233, 241, 209, 229, 238,
    242, 213, 214, 231, 240
10,   1,   6,  14,   7,  20,  25,  33,  26, 244, 175, 243, 235, 245, 176, 246,
    236, 232, 180, 181, 239
** ... 172 like lines cut
*Nset, nset=Set_Material_WholePart, generate
   1,  602,    1
*Elset, elset=Set_Material_WholePart, generate
  1,  96,   1
*Elset, elset=_Tower_Lateral_Surface_S6, internal
  1,  9, 13, 21, 25, 33, 37, 45, 49, 57, 61, 69, 73, 81, 85, 93
*Elset, elset=_Tower_Lateral_Surface_S4, internal
  2,  5, 14, 17, 26, 29, 38, 41, 50, 53, 62, 65, 74, 77, 86, 89
*Elset, elset=_Tower_Lateral_Surface_S3, internal, generate
  4,  88,  12
*Elset, elset=_Tower_Lateral_Surface_S5, internal
  8, 10, 11, 20, 22, 23, 32, 34, 35, 44, 46, 47, 56, 58, 59, 68
 70, 71, 80, 82, 83, 92, 94, 95
*Surface, type=ELEMENT, name=Tower_Lateral_Surface
_Tower_Lateral_Surface_S6, S6
_Tower_Lateral_Surface_S4, S4
_Tower_Lateral_Surface_S3, S3
_Tower_Lateral_Surface_S5, S5
** Section: Section_Steel_S355
*Solid Section, elset=Set_Material_WholePart, material=Steel_S355
,
*End Part
**  
**
** ASSEMBLY
**
*Assembly, name=Assembly
**  
*Instance, name=GBS-1, part=GBS_Fused
*End Instance
**  
*Instance, name=Tower-1, part=Tower
          0.,        45.04,           0.
*End Instance
**  
*Node
      1,           0.,   45.0400009,           0.
*Nset, nset=Base_GBS_Set, instance=GBS-1
   4,  50,  51,  52,  53,  54,  55,  56,  57,  58,  59,  60,  61,  62,  63,  64
  65,  66,  67, 119, 120, 121, 122, 123, 124, 125, 126, 127, 128, 129, 130, 131
 132, 133, 134, 135, 136, 137, 138, 139, 140, 141, 142, 143, 144, 145
*Elset, elset=Base_GBS_Set, instance=GBS-1
   4,   6,   8,  10,  14,  16,  17,  18,  19,  20,  21,  27,  28,  30,  31,  35
  42,  50,  52,  54,  56,  57,  62,  65,  67,  73,  76,  83,  84,  86,  94,  96
 103, 104, 113, 114, 115, 126, 129, 143, 147, 148, 154, 156, 157, 161, 162, 168
 169, 176, 178, 189, 198, 201, 205, 206, 213, 217, 218, 220, 222, 223, 226, 228
 230, 235, 240, 245, 246, 248, 249
*Nset, nset=RP_Interface
 1,
*Elset, elset=_Global_Outer_Surface_S1, internal, instance=GBS-1
  60,  64,  69,  95, 124, 128, 148, 204, 262, 263, 272, 287, 306, 326, 338, 347
 353, 358, 360, 361, 390, 405, 418, 424, 428, 437, 445, 454, 455, 490, 493, 499
 509, 526, 530, 542, 552, 556, 563, 576, 584, 593, 628, 634, 640, 643, 662, 663
 665, 685, 746, 775, 776, 777, 778, 786, 787, 790, 791, 792, 793, 794, 801, 808
 821, 838, 849, 867, 908, 912, 916
*Elset, elset=_Global_Outer_Surface_S3, internal, instance=GBS-1
   1,   4,   7,  10,  15,  31,  54,  55,  56,  57,  67,  68,  73,  76,  84,  94
 106, 117, 131, 157, 162, 170, 199, 257, 274, 283, 297, 305, 354, 363, 373, 375
 382, 398, 400, 410, 452, 481, 512, 538, 561, 573, 589, 605, 606, 635, 654, 688
 694, 703, 704, 712, 717, 730, 732, 734, 767, 772, 799, 805, 831, 834, 836, 839
 875, 877, 883, 888, 889, 890, 891, 902, 920, 927
*Elset, elset=_Global_Outer_Surface_S3, internal, instance=Tower-1, generate
  4,  88,  12
*Elset, elset=_Global_Outer_Surface_S2, internal, instance=GBS-1
  65,  97,  98, 109, 255, 269, 271, 278, 310, 322, 329, 331, 336, 337, 345, 362
 367, 379, 421, 460, 465, 471, 474, 506, 511, 512, 557, 569, 577, 592, 608, 620
 647, 648, 659, 661, 666, 668, 681, 707, 709, 713, 715, 727, 729, 735, 743, 750
 769, 771, 780, 807, 841, 842, 845, 846, 853, 854, 860, 904, 913, 915, 928, 933
*Elset, elset=_Global_Outer_Surface_S4, internal, instance=GBS-1
  61,  70,  78, 254, 258, 259, 267, 282, 285, 291, 309, 346, 365, 402, 420, 442
 464, 469, 473, 516, 525, 535, 559, 564, 586, 617, 627, 630, 638, 650, 653, 667
 673, 714, 716, 721, 723, 725, 728, 736, 738, 742, 747, 751, 752, 754, 757, 759
 760, 761, 782, 810, 817, 830, 832, 855, 886, 893, 895, 897, 901, 905, 922
*Elset, elset=_Global_Outer_Surface_S4, internal, instance=Tower-1
  2,  5, 14, 17, 26, 29, 38, 41, 50, 53, 62, 65, 74, 77, 86, 89
*Elset, elset=_Global_Outer_Surface_S6, internal, instance=Tower-1
  1,  9, 13, 21, 25, 33, 37, 45, 49, 57, 61, 69, 73, 81, 85, 93
*Elset, elset=_Global_Outer_Surface_S5, internal, instance=Tower-1
  8, 10, 11, 20, 22, 23, 32, 34, 35, 44, 46, 47, 56, 58, 59, 68
 70, 71, 80, 82, 83, 92, 94, 95
*Surface, type=ELEMENT, name=Global_Outer_Surface
_Global_Outer_Surface_S1, S1
_Global_Outer_Surface_S3, S3
_Global_Outer_Surface_S2, S2
_Global_Outer_Surface_S4, S4
_Global_Outer_Surface_S6, S6
_Global_Outer_Surface_S5, S5
*Elset, elset=_Tower_Contact_Surf_S4, internal, instance=Tower-1
  1,  2,  5, 13, 14, 17, 25, 26, 29, 37, 38, 41, 49, 50, 53, 61
 62, 65, 73, 74, 77, 85, 86, 89
*Elset, elset=_Tower_Contact_Surf_S5, internal, instance=Tower-1
  3,  8, 10, 11, 15, 20, 22, 23, 27, 32, 34, 35, 39, 44, 46, 47
 51, 56, 58, 59, 63, 68, 70, 71, 75, 80, 82, 83, 87, 92, 94, 95
*Elset, elset=_Tower_Contact_Surf_S6, internal, instance=Tower-1
  1,  6,  7,  9, 12, 13, 18, 19, 21, 24, 25, 30, 31, 33, 36, 37
 42, 43, 45, 48, 49, 54, 55, 57, 60, 61, 66, 67, 69, 72, 73, 78
 79, 81, 84, 85, 90, 91, 93, 96
*Elset, elset=_Tower_Contact_Surf_S3, internal, instance=Tower-1, generate
  4,  94,   6
*Elset, elset=_Tower_Contact_Surf_S1, internal, instance=Tower-1, generate
  1,  12,   1
*Elset, elset=_Tower_Contact_Surf_S2, internal, instance=Tower-1, generate
 85,  96,   1
*Surface, type=ELEMENT, name=Tower_Contact_Surf
_Tower_Contact_Surf_S4, S4
_Tower_Contact_Surf_S5, S5
_Tower_Contact_Surf_S6, S6
_Tower_Contact_Surf_S2, S2
_Tower_Contact_Surf_S3, S3
_Tower_Contact_Surf_S1, S1
** Constraint: Coupling_Pipe_GBS
*Coupling, constraint name=Coupling_Pipe_GBS, ref node=RP_Interface, surface=Tower_Contact_Surf
*Kinematic
*End Assembly
*Amplitude, name=Amp_Tabular_Z
             0.,              0.,              1.,             0.5,              2.,              1.,              3.,             0.5
             4.,              0.
** 
** MATERIALS
** 
*Material, name=Concrete_C50
*Density
2400.,
*Elastic
 3e+10, 0.2
*Material, name=Steel_S355
*Density
7850.,
*Elastic
 2.1e+11, 0.3
** 
** BOUNDARY CONDITIONS
** 
** Name: BC_Encastrement_Base Type: Symmetry/Antisymmetry/Encastre
*Boundary
Base_GBS_Set, ENCASTRE
** ----------------------------------------------------------------
** 
** STEP: Step_BC
** 
*Step, name=Step_BC, nlgeom=NO
*Static
0.08, 4., 4e-05, 0.08
** 
** BOUNDARY CONDITIONS
** 
** Name: BC_Interface Type: Displacement/Rotation
*Boundary
RP_Interface, 1, 1
RP_Interface, 2, 2
RP_Interface, 3, 3
RP_Interface, 4, 4
RP_Interface, 5, 5
RP_Interface, 6, 6
** 
** LOADS
** 
** Name: Load_Amp_Tabular_Z_Global_Outer_Surface_(0.0, 0.0, 0.1)   Type: Surface traction
*Dsload, amplitude=Amp_Tabular_Z
Global_Outer_Surface, TRVEC, 10., 0., 0., 1.
** 
** OUTPUT REQUESTS
** 
*Restart, write, frequency=0
** 
** FIELD OUTPUT: F-Output-1
** 
*Output, field, variable=PRESELECT
** 
** HISTORY OUTPUT: H-Output-1
** 
*Output, history, variable=PRESELECT
*End Step
