 Abaqus/Standard Learning Edition 2025                  DATE 14-janv.-2026 TIME 13:08:04
 SUMMARY OF JOB INFORMATION:
 STEP  INC ATT SEVERE EQUIL TOTAL  TOTAL      STEP       INC OF       DOF    IF
               DISCON ITERS ITERS  TIME/    TIME/LPF    TIME/LPF    MONITOR RIKS
               ITERS               FREQ
   1     1   1     0     1     1  0.0800     0.0800     0.08000   
   1     2   1     0     1     1  0.160      0.160      0.08000   
   1     3   1     0     1     1  0.240      0.240      0.08000   
   1     4   1     0     1     1  0.320      0.320      0.08000   
   1     5   1     0     1     1  0.400      0.400      0.08000   
   1     6   1     0     1     1  0.480      0.480      0.08000   
   1     7   1     0     1     1  0.560      0.560      0.08000   
   1     8   1     0     1     1  0.640      0.640      0.08000   
   1     9   1     0     1     1  0.720      0.720      0.08000   
   1    10   1     0     1     1  0.800      0.800      0.08000   
   1    11   1     0     1     1  0.880      0.880      0.08000   
   1    12   1     0     1     1  0.960      0.960      0.08000   
   1    13   1     0     1     1  1.04       1.04       0.08000   
   1    14   1     0     1     1  1.12       1.12       0.08000   
   1    15   1     0     1     1  1.20       1.20       0.08000   
   1    16   1     0     1     1  1.28       1.28       0.08000   
   1    17   1     0     1     1  1.36       1.36       0.08000   
   1    18   1     0     1     1  1.44       1.44       0.08000   
   1    19   1     0     1     1  1.52       1.52       0.08000   
   1    20   1     0     1     1  1.60       1.60       0.08000   
   1    21   1     0     1     1  1.68       1.68       0.08000   
   1    22   1     0     1     1  1.76       1.76       0.08000   
   1    23   1     0     1     1  1.84       1.84       0.08000   
   1    24   1     0     1     1  1.92       1.92       0.08000   
   1    25   1     0     1     1  2.00       2.00       0.08000   
   1    26   1     0     1     1  2.08       2.08       0.08000   
   1    27   1     0     1     1  2.16       2.16       0.08000   
   1    28   1     0     1     1  2.24       2.24       0.08000   
   1    29   1     0     1     1  2.32       2.32       0.08000   
   1    30   1     0     1     1  2.40       2.40       0.08000   
   1    31   1     0     1     1  2.48       2.48       0.08000   
   1    32   1     0     1     1  2.56       2.56       0.08000   
   1    33   1     0     1     1  2.64       2.64       0.08000   
   1    34   1     0     1     1  2.72       2.72       0.08000   
   1    35   1     0     1     1  2.80       2.80       0.08000   
   1    36   1     0     1     1  2.88       2.88       0.08000   
   1    37   1     0     1     1  2.96       2.96       0.08000   
   1    38   1     0     1     1  3.04       3.04       0.08000   
   1    39   1     0     1     1  3.12       3.12       0.08000   
   1    40   1     0     1     1  3.20       3.20       0.08000   
   1    41   1     0     1     1  3.28       3.28       0.08000   
   1    42   1     0     1     1  3.36       3.36       0.08000   
   1    43   1     0     1     1  3.44       3.44       0.08000   
   1    44   1     0     1     1  3.52       3.52       0.08000   
   1    45   1     0     1     1  3.60       3.60       0.08000   
   1    46   1     0     1     1  3.68       3.68       0.08000   
   1    47   1     0     1     1  3.76       3.76       0.08000   
   1    48   1     0     1     1  3.84       3.84       0.08000   
   1    49   1     0     1     1  3.92       3.92       0.08000   
   1    50   1     0     1     1  4.00       4.00       0.08000   
                          
 THE ANALYSIS HAS COMPLETED SUCCESSFULLY
